/*--------------------------------*- C++ -*----------------------------------*\
| =========                 |                                                 |
| \\      /  F ield         | OpenFOAM: The Open Source CFD Toolbox           |
|  \\    /   O peration     | Version:  v2006                                 |
|   \\  /    A nd           | Website:  www.openfoam.com                      |
|    \\/     M anipulation  |                                                 |
\*---------------------------------------------------------------------------*/
FoamFile
{
    version     2.0;
    format      ascii;
    class       dictionary;
    location    "constant/fluid";
    object      motionProperties;
}
// * * * * * * * * * * * * * * * * * * * * * * * * * * * * * * * * * * * * * //

dynamicFvMesh interfaceDynamicMotionSolverFvMesh;
nActiveOuterIterations 1;

solver newDisplacementLaplacian;

newDisplacementLaplacianCoeffs
{
    nCorrectors 2;
    convergenceTolerance 1e-10;
    // solver velocityComponentLaplacian x;
    // diffusivity  uniform;
    // diffusivity  directional (1 200 0);
    // diffusivity  motionDirectional (1 1000 0);
    // diffusivity  inverseDistance 1(INTERFACE_FLUID);
    // diffusivity  file motionDiffusivity;
    diffusivity  quadratic inverseDistance 1(INTERFACE_FLUID);
    // diffusivity  exponential 2000 inverseDistance 1(INTERFACE_FLUID);
}

// ************************************************************************* //
