/*--------------------------------*- C++ -*----------------------------------*\
| =========                 |                                                 |
| \\      /  F ield         | OpenFOAM: The Open Source CFD Toolbox           |
|  \\    /   O peration     | Version:  v2006                                 |
|   \\  /    A nd           | Website:  www.openfoam.com                      |
|    \\/     M anipulation  |                                                 |
\*---------------------------------------------------------------------------*/
FoamFile
{
    version     2.0;
    format      ascii;
    class       dictionary;
    location    "system";
    object      controlDict;
}
// * * * * * * * * * * * * * * * * * * * * * * * * * * * * * * * * * * * * * //

application     multiFieldSolver;

startFrom       latestTime;

startTime       0;

stopAt          endTime;

endTime         0.01;

deltaT          1.25E-5;

writeControl    runTime;

writeInterval   0.000125;

purgeWrite      0;

writeFormat     ascii;

writePrecision  10;

writeCompression off;

timeFormat      general;

timePrecision   6;

runTimeModifiable yes;

adjustTimeStep    no;

maxCo             0.5;

libs 
(
      "libsmoothPulseTotalPressure.so"
);

functions
{
    OutletFlowRate
    {
         type           surfaceFieldValue;
         libs           ("libfieldFunctionObjects.so");
         fields         (phi);
         writeFields    no;
         regionType     patch;
         name           OUTLET;
         region         fluid;
         operation      sum;
    }

    InletFlowRate
    {
         type           surfaceFieldValue;
         libs           ("libfieldFunctionObjects.so");
         fields         (phi);
         writeFields    no;
         regionType     patch;
         name           INLET;
         region         fluid;
         operation      sum;
    }

    PressureProbes
    {
        type            probes;
        libs            ("libsampling.so");

        writeControl    outputTime;
        writeInterval   1;
        fields          (p);
        region          fluid;

        interpolationScheme cellPoint;

        probeLocations
        (
            (1e-4 1e-4 1e-4)
            (1e-4 1e-4 0.0126)
            (1e-4 1e-4 0.0251)
            (1e-4 1e-4 0.0376)
        );
    }
};

// ************************************************************************* //
